89
basis.out
C         -7.26869       -2.51960        1.26289
C         -0.01894       -1.11825       -1.26226
C          7.23803       -2.50774        1.25847
C          7.23809       -2.50708       -1.25904
C          7.57926       -1.67954       -0.00003
C         -7.26935       -2.51885       -1.26383
C         -7.56633       -1.68291       -0.00011
C         -0.01929       -1.11964        1.26092
C          0.00430       -0.22893       -0.00016
C        -12.69863       -2.19602        0.00082
C         12.70631       -2.21175        0.00085
C         -5.89430        2.26423        0.00017
C         -4.95111        1.21269        0.00017
C         -5.45582       -0.10829        0.00017
C         -6.82097       -0.34422        0.00017
C         -7.73659        0.72573        0.00017
C         -7.26660        2.03591        0.00017
C         -9.01653       -1.21441        0.00017
C         -9.09670        0.18746        0.00017
C        -10.17122       -1.98815        0.00017
C        -11.49741        0.03092        0.00017
C        -10.34533        0.81578        0.00017
C          3.02326        2.81728        0.00017
C          3.50852        1.49085        0.00017
C          2.54892        0.45174        0.00017
C          1.19358        0.73900        0.00017
C          0.74214        2.07194        0.00017
C          1.66502        3.11483        0.00017
C         -1.17107        0.74592        0.00017
C         -0.71698        2.07607        0.00017
C         -2.52722        0.45609        0.00017
C         -3.48746        1.49292        0.00017
C         -3.00268        2.81879        0.00017
C         -1.64450        3.11730        0.00017
C         11.51951        0.03275        0.00017
C         11.45373       -1.36818        0.00017
C         10.19165       -1.98859        0.00017
C          9.03913       -1.21953        0.00017
C          9.12197        0.18697        0.00017
C         10.36414        0.81791        0.00017
C          6.84833       -0.33843        0.00017
C          7.76363        0.72922        0.00017
C          5.48080       -0.10850        0.00017
C          4.97207        1.20955        0.00017
C          5.91334        2.26182        0.00017
C          7.28618        2.03791        0.00017
C        -11.43165       -1.37301        0.00017
H        -12.48173       -3.26795        0.00068
H        -13.31630       -1.98263       -0.87955
H        -13.31524       -1.98269        0.88197
H         -6.21289       -2.80492        1.30572
H         -7.86658       -3.43801        1.25377
H         -7.51844       -1.96299        2.17013
H          0.85829       -1.77272       -1.29576
H         -0.03446       -0.51289       -2.17232
H         -0.91212       -1.75335       -1.26380
H          7.45515       -1.95072        2.17333
H          6.17490       -2.77334        1.26361
H          7.81457       -3.43898        1.27354
H         13.60881       -1.59512        0.00101
H         12.74700       -2.86359       -0.87973
H         12.74632       -2.86296        0.88195
H         12.49282        0.51584        0.00024
H         10.43504        1.90188        0.00010
H          7.97006        2.88126        0.00008
H          5.57521        3.29014        0.00017
H          3.71601        3.64855        0.00018
H          1.33198        4.14860        0.00009
H         -1.32044        4.15365        0.00007
H         -3.69853        3.64827        0.00016
H         -5.56149        3.29414        0.00019
H         -7.95896        2.87310        0.00009
H        -10.42497        1.89916        0.00006
H        -12.47265        0.51212        0.00017
H        -10.10669       -3.07400        0.00004
H         -4.78278       -0.95933       -0.00009
H         -2.84235       -0.58236       -0.00009
H          2.85941       -0.58789       -0.00006
H          4.80709       -0.95978       -0.00006
H         10.12651       -3.07486        0.00003
H         -0.03477       -0.51520        2.17152
H          0.85768       -1.77448        1.29356
H         -0.91272       -1.75441        1.26134
H         -7.86744       -3.43716       -1.25535
H         -6.21366       -2.80446       -1.30754
H         -7.51930       -1.96173       -2.17078
H          7.45560       -1.94981       -2.17373
H          6.17485       -2.77230       -1.26486
H          7.81421       -3.43859       -1.27470
