77
arc.out
C          5.89253       -2.17281        0.00000
C          4.91888       -1.14093        0.00000
C          5.37292        0.19016        0.00000
C          6.74290        0.45552        0.00000
C          7.70294       -0.58702        0.00000
C          7.25406       -1.90955        0.00000
N          7.41043        1.67661        0.00000
C          8.77930        1.43539        0.00000
C          9.00128        0.03521        0.00000
C          9.83913        2.34406        0.00000
C         11.36439        0.44840        0.00000
C         10.30940       -0.45490        0.00000
C         12.32815        2.78135        0.00000
C          6.80376        2.98743        0.00000
C         -3.03244       -2.81939        0.00000
C         -3.46670       -1.46932        0.00000
C         -2.48503       -0.45966        0.00000
C         -1.13302       -0.80621        0.00000
C         -0.72003       -2.16184        0.00000
C         -1.69074       -3.16567        0.00000
N         -0.00008        0.00424        0.00000
C          1.13113       -0.80866        0.00000
C          0.71595       -2.16322        0.00000
C          2.47849       -0.45612        0.00000
C          3.46013       -1.46753        0.00000
C          3.02367       -2.81871        0.00000
C          1.68198       -3.16816        0.00000
C          0.01579        1.44811        0.00000
C        -11.36943        0.45188        0.00000
C        -11.15183        1.84394        0.00000
C         -9.84448        2.34548        0.00000
C         -8.77664        1.44533        0.00000
C         -9.00100        0.04246        0.00000
C        -10.30864       -0.44787        0.00000
N         -7.40512        1.67682        0.00000
C         -6.74258        0.45344        0.00000
C         -7.70529       -0.58526        0.00000
C         -5.37550        0.18927        0.00000
C         -4.92567       -1.14483        0.00000
C         -5.90339       -2.17489        0.00000
C         -7.26572       -1.90898        0.00000
C        -12.32540        2.79847        0.00000
C         -6.75498        2.96434        0.00000
C         11.14372        1.84374        0.00000
H         12.01435        3.83006        0.00000
H         12.96140        2.62047       -0.88173
H         12.96140        2.62047        0.88173
H          5.71758        2.88508        0.00000
H          7.09609        3.55483       -0.89152
H          7.09609        3.55483        0.89152
H         -1.00982        1.81986        0.00000
H          0.52227        1.83521       -0.89216
H          0.52227        1.83521        0.89216
H         -7.51181        3.74948        0.00000
H         -6.12885        3.08493       -0.89208
H         -6.12885        3.08493        0.89208
H        -13.27837        2.25994        0.00000
H        -12.31322        3.45065       -0.88246
H        -12.31322        3.45065        0.88246
H        -12.39018        0.07727        0.00000
H        -10.49334       -1.51968        0.00000
H         -7.98263       -2.72684        0.00000
H         -5.60118       -3.21422        0.00000
H         -3.75833       -3.62255        0.00000
H         -1.40044       -4.21333        0.00000
H          1.38476       -4.21415        0.00000
H          3.74619       -3.62400        0.00000
H          5.58281       -3.21012        0.00000
H          7.96267       -2.73353        0.00000
H         10.49101       -1.52691        0.00000
H         12.38665        0.07860        0.00000
H          9.65977        3.41563        0.00000
H          4.66426        1.00980        0.00000
H          2.75049        0.59256        0.00000
H         -2.77475        0.58398        0.00000
H         -4.67657        1.01650        0.00000
H         -9.68540        3.42034        0.00000
