77
linear.out
C          3.05172       -1.53265        0.00000
C          3.46829       -0.17563        0.00000
C          2.47493        0.82084        0.00000
C          1.13181        0.45392        0.00000
C          0.73149       -0.90840        0.00000
C          1.71461       -1.89899        0.00000
N         -0.01365        1.24849        0.00000
C         -1.12820        0.42340        0.00000
C         -0.70887       -0.92847        0.00000
C         -2.47427        0.78304        0.00000
C         -3.46164       -0.21873        0.00000
C         -3.03204       -1.57104        0.00000
C         -1.68939       -1.92677        0.00000
C         -0.10145        2.69007        0.00000
C          5.34370        1.53119        0.00000
C          4.91623        0.17934        0.00000
C          5.90254       -0.82006        0.00000
C          7.24850       -0.46475        0.00000
C          7.66708        0.88944        0.00000
C          6.68573        1.88565        0.00000
N          8.36948       -1.28831        0.00000
C          9.50262       -0.48647        0.00000
C          9.10933        0.87656        0.00000
C         10.84499       -0.86711        0.00000
C         11.82004        0.13215        0.00000
C         11.43246        1.49075        0.00000
C         10.09436        1.86719        0.00000
C         13.28637       -0.23138        0.00000
C          8.37655       -2.73574        0.00000
C        -11.41906        1.52044        0.00000
C        -11.81994        0.16954        0.00000
C        -10.85195       -0.83883        0.00000
C         -9.50308       -0.48364        0.00000
C         -9.09660        0.87733        0.00000
C        -10.07290        1.87788        0.00000
N         -8.37677       -1.29769        0.00000
C         -7.24673       -0.48727        0.00000
C         -7.65432        0.87032        0.00000
C         -5.90720       -0.86430        0.00000
C         -4.91250        0.13130        0.00000
C         -5.33247        1.48656        0.00000
C         -6.66995        1.85702        0.00000
C        -13.28377       -0.21390        0.00000
C         -8.36270       -2.74457        0.00000
H          1.43152       -2.94935       -0.00000
H          3.78510       -2.32922       -0.00000
H          2.73805        1.87043       -0.00002
H          4.60918        2.32738       -0.00000
H          5.62677       -1.86668       -0.00002
H          6.96680        2.93497       -0.00000
H          0.89912        3.12250       -0.00014
H         -0.63730        3.04376        0.89012
H         -0.63754        3.04374       -0.88997
H         -2.74226        1.83147       -0.00009
H         -1.41030       -2.97761       -0.00001
H         -3.76514       -2.36962        0.00000
H         -4.59628        2.28024       -0.00000
H         -6.94817        2.90730       -0.00000
H         -5.65682       -1.91839       -0.00002
H         -9.38795       -3.11852       -0.00002
H         -7.85571       -3.13415        0.89159
H         -7.85567       -3.13416       -0.89156
H        -11.16746       -1.87925       -0.00006
H        -13.93507        0.66554       -0.00007
H        -13.53767       -0.81652        0.88145
H        -13.53767       -0.81665       -0.88136
H        -12.18153        2.29566       -0.00005
H         -9.78421        2.92520       -0.00002
H          7.34991       -3.10604       -0.00010
H          8.88166       -3.12729        0.89171
H          8.88183       -3.12729       -0.89160
H          9.80997        2.91610       -0.00001
H         12.20385        2.25721       -0.00003
H         13.43001       -1.31696       -0.00006
H         13.79687        0.17590        0.88201
H         13.79697        0.17600       -0.88193
H         11.13078       -1.91580       -0.00012
