77
basis.out
C          3.05364       -1.53097        0.00000
C          3.46926       -0.17377        0.00000
C          2.47572        0.82203        0.00000
C          1.13224        0.45494        0.00000
C          0.73254       -0.90782        0.00000
C          1.71671       -1.89720        0.00000
N         -0.01388        1.24875        0.00000
C         -1.12812        0.42264        0.00000
C         -0.70834       -0.92928        0.00000
C         -2.47482        0.78104        0.00000
C         -3.46169       -0.22084        0.00000
C         -3.03207       -1.57327        0.00000
C         -1.68902       -1.92791        0.00000
C         -0.10341        2.69067        0.00000
C          5.34529        1.53530        0.00000
C          4.91694        0.18359        0.00000
C          5.90177       -0.81668        0.00000
C          7.24777       -0.46226        0.00000
C          7.66790        0.89186        0.00000
C          6.68742        1.88880        0.00000
N          8.36730       -1.28736        0.00000
C          9.50116       -0.48663        0.00000
C          9.11021        0.87741        0.00000
C         10.84261       -0.87038        0.00000
C         11.81923        0.12732        0.00000
C         11.43408        1.48623        0.00000
C         10.09741        1.86617        0.00000
C         13.28551       -0.23436        0.00000
C          8.37345       -2.73520        0.00000
C        -11.41764        1.51652        0.00000
C        -11.81850        0.16612        0.00000
C        -10.85049       -0.84236        0.00000
C         -9.50202       -0.48468        0.00000
C         -9.09600        0.87683        0.00000
C        -10.07303        1.87653        0.00000
N         -8.37576       -1.29848        0.00000
C         -7.24603       -0.48739        0.00000
C         -7.65383        0.87049        0.00000
C         -5.90655       -0.86401        0.00000
C         -4.91254        0.13161        0.00000
C         -5.33258        1.48695        0.00000
C         -6.66989        1.85778        0.00000
C        -13.28381       -0.20889        0.00000
C         -8.36364       -2.74584        0.00000
H          1.43358       -2.94644        0.00000
H          3.78632       -2.32739        0.00000
H          2.74168        1.87025       -0.00002
H          4.61301        2.33270        0.00000
H          5.62291       -1.86199       -0.00002
H          6.96898        2.93724        0.00000
H          0.89484        3.12592       -0.00015
H         -0.63892        3.04375        0.88938
H         -0.63918        3.04373       -0.88922
H         -2.74601        1.82804       -0.00009
H         -1.40891       -2.97775       -0.00000
H         -3.76445       -2.37193        0.00001
H         -4.59680        2.27998        0.00000
H         -6.94885        2.90737       -0.00000
H         -5.65469       -1.91700       -0.00002
H         -9.38794       -3.11974       -0.00002
H         -7.85858       -3.13664        0.89077
H         -7.85853       -3.13664       -0.89074
H        -11.16296       -1.88325       -0.00006
H        -13.92741        0.67504       -0.00008
H        -13.54008       -0.80813        0.88166
H        -13.54002       -0.80829       -0.88156
H        -12.18122        2.28905       -0.00004
H         -9.78903        2.92431       -0.00002
H          7.34827       -3.10643       -0.00011
H          8.87740       -3.12765        0.89070
H          8.87759       -3.12766       -0.89058
H          9.81797        2.91565       -0.00002
H         12.20786        2.24900       -0.00002
H         13.43149       -1.31801       -0.00007
H         13.79374        0.17288        0.88201
H         13.79374        0.17304       -0.88194
H         11.12474       -1.91942       -0.00012
