65
arc.out
C          5.89710       -1.80642        0.00000
C          4.99955       -0.71204        0.00000
C          5.55557        0.57954        0.00000
C          6.93776        0.74925        0.00000
C          7.82425       -0.34805        0.00000
C          7.27191       -1.63513        0.00000
S          7.79932        2.29571        0.00000
C          9.36004        1.45984        0.00000
C          9.21352        0.05720        0.00000
C         10.62068        2.05973        0.00000
C         11.61652       -0.14576        0.00000
C         10.36533       -0.74304        0.00000
C         13.14315        1.86890        0.00000
C         -2.99677       -2.21419        0.00000
C         -3.54172       -0.90770        0.00000
C         -2.63911        0.17012        0.00000
C         -1.26805       -0.06371        0.00000
C         -0.73301       -1.36899        0.00000
C         -1.63047       -2.44500        0.00000
S         -0.00407        1.17490        0.00000
C          1.25432       -0.07165        0.00000
C          0.71227       -1.37333        0.00000
C          2.62677        0.15331        0.00000
C          3.52339       -0.92911        0.00000
C          2.96797       -2.23342        0.00000
C          1.60019       -2.45571        0.00000
C        -11.61896        0.00345        0.00000
C        -11.74063        1.40485        0.00000
C        -10.58074        2.18763        0.00000
C         -9.33387        1.56511        0.00000
C         -9.21063        0.15722        0.00000
C        -10.37675       -0.61836        0.00000
S         -7.75926        2.37172        0.00000
C         -6.92721        0.80834        0.00000
C         -7.82951       -0.27413        0.00000
C         -5.55060        0.61454        0.00000
C         -5.01560       -0.68473        0.00000
C         -5.93008       -1.76691        0.00000
C         -7.30249       -1.57138        0.00000
C        -13.10257        2.05988        0.00000
C         11.76260        1.25695        0.00000
H         13.10026        2.96254        0.00000
H         13.71555        1.55487       -0.88180
H         13.71555        1.55487        0.88180
H        -13.90407        1.31449        0.00000
H        -13.23929        2.69641       -0.88300
H        -13.23929        2.69641        0.88300
H        -12.52034       -0.60441        0.00000
H        -10.31173       -1.70357        0.00000
H         -7.97084       -2.42887        0.00000
H         -5.56935       -2.78843        0.00000
H         -3.65334       -3.07611        0.00000
H         -1.25913       -3.46643        0.00000
H          1.21578       -3.47257        0.00000
H          3.61419       -3.10223        0.00000
H          5.51655       -2.82071        0.00000
H          7.91913       -2.50783        0.00000
H         10.27339       -1.82623        0.00000
H         12.50757       -0.76857        0.00000
H         10.71595        3.14203        0.00000
H          4.92010        1.45724        0.00000
H          2.98321        1.17621        0.00000
H         -2.99362        1.19360        0.00000
H         -4.90476        1.48370        0.00000
H        -10.65842        3.27172        0.00000
