65
linear.out
C          3.00076       -1.47509       -0.00000
C          3.53830       -0.16388       -0.00000
C          2.62800        0.90645       -0.00000
C          1.25850        0.66197       -0.00000
C          0.73038       -0.64631       -0.00000
C          1.63565       -1.71584       -0.00000
S         -0.01165        1.89482       -0.00000
C         -1.26215        0.64328       -0.00000
C         -0.71852       -0.65833       -0.00000
C         -2.63357        0.87205       -0.00000
C         -3.53535       -0.20538       -0.00000
C         -2.98573       -1.51096       -0.00000
C         -1.61669       -1.73708       -0.00000
C          5.54548        1.38466       -0.00000
C          5.00879        0.07444       -0.00000
C          5.91821       -0.99514       -0.00000
C          7.28703       -0.74950       -0.00000
C          7.81740        0.55841       -0.00000
C          6.91051        1.62656       -0.00000
S          8.55029       -1.98761       -0.00000
C          9.80456       -0.74019        0.00000
C          9.26625        0.56462       -0.00000
C         11.18144       -0.96623       -0.00000
C         12.05403        0.12214       -0.00000
C         11.51967        1.42742       -0.00000
C         10.15075        1.65245       -0.00000
C         13.54966       -0.08210       -0.00000
C        -11.50171        1.46387       -0.00000
C        -12.05539        0.17036       -0.00000
C        -11.19574       -0.93274       -0.00000
C         -9.81765       -0.72970       -0.00000
C         -9.25806        0.56835       -0.00000
C        -10.12634        1.66755       -0.00000
S         -8.58051       -1.99661       -0.00001
C         -7.29492       -0.77714       -0.00000
C         -7.81021        0.53631       -0.00000
C         -5.92663       -1.03502       -0.00000
C         -5.00843        0.02946       -0.00000
C         -5.53735        1.34342       -0.00000
C         -6.89889        1.59680       -0.00000
C        -13.55263       -0.03792       -0.00000
H          1.26722       -2.73883       -0.00000
H          3.65969       -2.33540       -0.00000
H          2.97123        1.93335       -0.00000
H          4.88163        2.24063       -0.00000
H          5.57253       -2.02220       -0.00000
H          7.27394        2.65010       -0.00000
H         -2.98863        1.89471        0.00000
H         -1.24446       -2.75839       -0.00000
H         -3.64091       -2.37521       -0.00000
H         -4.87238        2.19737       -0.00000
H         -7.26078        2.62119       -0.00000
H         -5.59119       -2.06572       -0.00000
H        -11.60467       -1.94042       -0.00003
H        -14.09178        0.91464       -0.00017
H        -13.87644       -0.60425        0.88201
H        -13.87641       -0.60456       -0.88182
H        -12.16918        2.32172       -0.00005
H         -9.72683        2.67753       -0.00002
H          9.76014        2.66631       -0.00002
H         12.20105        2.27449       -0.00003
H         13.81245       -1.14466       -0.00013
H         14.01226        0.37725        0.88244
H         14.01230        0.37748       -0.88230
H         11.57157       -1.98068       -0.00004
